examples/PVDemo/data/ieee/3buscdf.txt
 08/19/93 UW ARCHIVE           100.0  1962 W IEEE 14 Bus Test Case
BUS DATA FOLLOWS                            14 ITEMS
   1 Bus 1            1  3 1.000    0.0      0.0     0.0     300.0     0.0     0.0  1.000   300.0  -300.0   0.0    0.0        0
   2 Bus 2            1  0 1.000    0.0      0.0     0.0       0.0     0.0     0.0  1.000     0.0     0.0   0.0    0.0        0
   3 Bus 3            1  0 1.000    0.0    200.0     0.0       0.0     0.0     0.0  1.000     0.0     0.0   0.0    0.0        0
-999 
BRANCH DATA FOLLOWS                         20 ITEMS
   1    2  1  1 1 0  0.01923   0.09615    0.0         0     0     0    0 0  0.0       0.0 0.0    0.0     0.0    0.0   0.0
   3    2  1  1 1 0  0.01923   0.09615    0.0         0     0     0    0 0  0.0       0.0 0.0    0.0     0.0    0.0   0.0
-999
LOSS ZONES FOLLOWS                     1 ITEMS
  1 IEEE 14 BUS
-99
INTERCHANGE DATA FOLLOWS                 1 ITEMS
 1    2 Bus 2     HV    0.0  999.99  IEEE14  IEEE 14 Bus Test Case
-9
TIE LINES FOLLOWS                     0 ITEMS
-999
END OF DATA
